Version 4
SHEET 1 1696 680
WIRE 896 -48 736 -48
WIRE 1088 -48 960 -48
WIRE 1456 -48 1296 -48
WIRE 1648 -48 1520 -48
WIRE 352 16 272 16
WIRE 976 16 960 16
WIRE 1536 16 1520 16
WIRE 128 32 96 32
WIRE 272 32 272 16
WIRE 272 32 128 32
WIRE 560 32 416 32
WIRE 656 32 560 32
WIRE 736 32 736 -48
WIRE 752 32 736 32
WIRE 960 32 960 16
WIRE 960 32 832 32
WIRE 1088 32 1088 -48
WIRE 1088 32 1040 32
WIRE 1216 32 1088 32
WIRE 1296 32 1296 -48
WIRE 1312 32 1296 32
WIRE 1520 32 1520 16
WIRE 1520 32 1392 32
WIRE 1648 32 1648 -48
WIRE 1648 32 1600 32
WIRE 352 48 288 48
WIRE 976 48 960 48
WIRE 1536 48 1520 48
WIRE 128 64 128 32
WIRE 832 64 832 32
WIRE 1392 64 1392 32
WIRE 960 96 960 48
WIRE 1008 96 960 96
WIRE 1088 96 1088 32
WIRE 1520 96 1520 48
WIRE 1568 96 1520 96
WIRE 1648 96 1648 32
WIRE 288 128 288 48
WIRE 384 128 288 128
WIRE 560 128 560 32
WIRE 560 128 464 128
WIRE 960 128 960 96
WIRE 1520 128 1520 96
WIRE 288 176 288 128
WIRE 832 208 832 128
WIRE 960 208 832 208
WIRE 1392 208 1392 128
WIRE 1520 208 1392 208
FLAG 128 128 0
FLAG 288 256 0
FLAG 960 208 0
FLAG 1520 208 0
FLAG 384 0 VCC
FLAG 1008 0 VCC
FLAG 1568 0 VCC
FLAG 384 64 VNN
FLAG 1008 64 VNN
FLAG 1568 64 VNN
FLAG 1648 32 VOUT
FLAG 16 32 VIN
SYMBOL res 112 16 R90
WINDOW 0 0 56 VBottom 2
WINDOW 3 32 56 VTop 2
SYMATTR InstName R1
SYMATTR Value 106.1k
SYMBOL cap 112 64 R0
SYMATTR InstName C1
SYMATTR Value 1nF
SYMBOL res 480 112 R90
WINDOW 0 0 56 VBottom 2
WINDOW 3 32 56 VTop 2
SYMATTR InstName R2
SYMATTR Value .000001
SYMBOL res 272 160 R0
SYMATTR InstName R3
SYMATTR Value 1Meg
SYMBOL LM324 384 32 R0
SYMATTR InstName U1
SYMBOL res 752 16 R90
WINDOW 0 0 56 VBottom 2
WINDOW 3 32 56 VTop 2
SYMATTR InstName R4
SYMATTR Value 170k
SYMBOL LM324 1008 32 R0
SYMATTR InstName U3
SYMBOL res 848 16 R90
WINDOW 0 0 56 VBottom 2
WINDOW 3 32 56 VTop 2
SYMATTR InstName R5
SYMATTR Value 1.407k
SYMBOL cap 816 64 R0
SYMATTR InstName C2
SYMATTR Value 1n
SYMBOL cap 960 -64 R90
WINDOW 0 0 32 VBottom 2
WINDOW 3 32 32 VTop 2
SYMATTR InstName C3
SYMATTR Value 47n
SYMBOL res 944 112 R0
SYMATTR InstName R6
SYMATTR Value 1Meg
SYMBOL res 1104 80 R90
WINDOW 0 0 56 VBottom 2
WINDOW 3 32 56 VTop 2
SYMATTR InstName R7
SYMATTR Value .00001
SYMBOL res 1312 16 R90
WINDOW 0 0 56 VBottom 2
WINDOW 3 32 56 VTop 2
SYMATTR InstName R8
SYMATTR Value 61.7k
SYMBOL LM324 1568 32 R0
SYMATTR InstName U4
SYMBOL res 1408 16 R90
WINDOW 0 0 56 VBottom 2
WINDOW 3 32 56 VTop 2
SYMATTR InstName R9
SYMATTR Value 3.88k
SYMBOL cap 1376 64 R0
SYMATTR InstName C4
SYMATTR Value 1n
SYMBOL cap 1520 -64 R90
WINDOW 0 0 32 VBottom 2
WINDOW 3 32 32 VTop 2
SYMATTR InstName C5
SYMATTR Value 47n
SYMBOL res 1504 112 R0
SYMATTR InstName R10
SYMATTR Value 1Meg
SYMBOL res 1664 80 R90
WINDOW 0 0 56 VBottom 2
WINDOW 3 32 56 VTop 2
SYMATTR InstName R11
SYMATTR Value .00001
TEXT 1112 360 Left 2 !Vcc 0 vcc 15\nVnn 0 vnn 15
TEXT 1104 296 Left 2 !.AC dec 10 10 30k
